Version 4
SHEET 1 1092 680
WIRE 592 -128 528 -128
WIRE 720 -128 672 -128
WIRE 912 -112 912 -160
WIRE 624 32 624 0
WIRE 912 32 912 -32
WIRE 1072 32 912 32
WIRE 384 48 208 48
WIRE 528 48 528 -128
WIRE 528 48 448 48
WIRE 592 48 528 48
WIRE 1072 48 1072 32
WIRE 720 64 720 -128
WIRE 720 64 656 64
WIRE 592 80 512 80
WIRE 912 96 912 32
WIRE 208 144 208 48
WIRE 624 144 624 96
WIRE 208 160 208 144
WIRE 512 208 512 80
WIRE 912 240 912 176
WIRE 208 288 208 224
FLAG 208 288 0
FLAG 1072 48 0
FLAG 512 208 0
FLAG 912 -160 Vcc
FLAG 624 0 Vcc
FLAG 912 240 Vee
FLAG 624 144 Vee
SYMBOL res 688 -144 R90
WINDOW 0 0 56 VBottom 2
WINDOW 3 32 56 VTop 2
SYMATTR InstName R1
SYMATTR Value 5k1
SYMBOL cap 448 32 R90
WINDOW 0 -12 31 VBottom 2
WINDOW 3 32 32 VTop 2
SYMATTR InstName C1
SYMATTR Value 20n
SYMBOL voltage 912 -128 R0
WINDOW 123 0 0 Left 0
WINDOW 39 0 0 Left 0
SYMATTR InstName V1
SYMATTR Value 9
SYMBOL voltage 912 80 R0
WINDOW 123 0 0 Left 0
WINDOW 39 0 0 Left 0
SYMATTR InstName V2
SYMATTR Value 9
SYMBOL voltage 208 128 R0
WINDOW 123 0 0 Left 0
WINDOW 39 0 0 Left 0
SYMATTR InstName V3
SYMATTR Value PULSE(-500m 500mv 1p 0.5ms 0.5ms 0 1ms)
SYMBOL Germosymb\\LM833 624 64 R0
SYMATTR InstName U1
TEXT 174 330 Left 2 !.tran 10ms startup
