Version 4
SHEET 1 880 680
WIRE 576 16 576 -32
WIRE 256 32 192 32
WIRE 384 32 320 32
WIRE 288 160 288 128
WIRE 576 160 576 96
WIRE 736 160 576 160
WIRE 32 176 -128 176
WIRE 192 176 192 32
WIRE 192 176 112 176
WIRE 256 176 192 176
WIRE 736 176 736 160
WIRE 384 192 384 32
WIRE 384 192 320 192
WIRE 256 208 176 208
WIRE 576 224 576 160
WIRE -128 272 -128 176
WIRE 288 272 288 224
WIRE -128 288 -128 272
WIRE 176 336 176 208
WIRE 576 368 576 304
WIRE -128 416 -128 352
FLAG -128 416 0
FLAG 736 176 0
FLAG 176 336 0
FLAG 576 -32 Vcc
FLAG 288 128 Vcc
FLAG 576 368 Vee
FLAG 288 272 Vee
SYMBOL res 128 160 R90
WINDOW 0 0 56 VBottom 2
WINDOW 3 32 56 VTop 2
SYMATTR InstName R1
SYMATTR Value 5k1
SYMBOL cap 320 16 R90
WINDOW 0 0 32 VBottom 2
WINDOW 3 32 32 VTop 2
SYMATTR InstName C1
SYMATTR Value 20n
SYMBOL voltage 576 0 R0
WINDOW 123 0 0 Left 0
WINDOW 39 0 0 Left 0
SYMATTR InstName V1
SYMATTR Value 15
SYMBOL voltage 576 208 R0
WINDOW 123 0 0 Left 0
WINDOW 39 0 0 Left 0
SYMATTR InstName V2
SYMATTR Value 15
SYMBOL voltage -128 256 R0
WINDOW 123 0 0 Left 0
WINDOW 39 0 0 Left 0
SYMATTR InstName V3
SYMATTR Value PULSE(-500m 500mv 1p 1p 1p 0.05ms 0.1ms)
SYMBOL Germosymb\\LM833 288 192 R0
SYMATTR InstName U1
TEXT -162 458 Left 2 !.tran 0.1s startup
