Version 4
SHEET 1 1508 940
WIRE 656 -32 512 -32
WIRE 128 48 128 -16
WIRE 128 48 -224 48
WIRE 512 64 512 -32
WIRE -224 112 -224 48
WIRE 128 128 128 48
WIRE 496 160 496 128
WIRE 528 160 528 128
WIRE 592 160 528 160
WIRE 592 192 592 160
WIRE -224 256 -224 192
WIRE 112 256 112 192
WIRE 112 256 -224 256
WIRE 144 256 144 192
WIRE 496 256 496 240
WIRE 496 256 144 256
WIRE -224 288 -224 256
WIRE 496 288 496 256
WIRE -224 400 -224 368
WIRE -144 400 -224 400
WIRE -48 400 -64 400
WIRE -16 400 -48 400
WIRE 96 400 96 368
WIRE 96 400 64 400
WIRE 144 400 96 400
WIRE 256 400 224 400
WIRE 288 400 256 400
WIRE 496 400 496 368
WIRE 496 400 368 400
WIRE 496 464 496 400
WIRE 96 480 96 400
WIRE -224 496 -224 400
WIRE 1216 576 1216 528
WIRE -240 608 -240 560
WIRE -208 608 -208 560
WIRE -48 608 -48 400
WIRE -48 608 -208 608
WIRE 256 608 256 400
WIRE 480 608 480 528
WIRE 480 608 256 608
WIRE 512 608 512 528
WIRE 784 640 784 576
WIRE 896 640 896 576
WIRE 1216 688 1216 656
WIRE 1216 688 1056 688
WIRE 1216 704 1216 688
WIRE 96 752 96 560
WIRE 656 752 656 -32
WIRE 656 752 96 752
WIRE 1056 784 1056 688
WIRE 1216 864 1216 784
FLAG 592 192 0
FLAG 128 -16 Vout
IOPIN 128 -16 Out
FLAG -240 608 V1
FLAG 96 368 Vx
FLAG 512 -32 Vfeed
FLAG 896 496 -Vcc
FLAG 784 496 +Vcc
FLAG 896 640 0
FLAG 784 640 0
FLAG -256 528 +Vcc
FLAG 464 496 +Vcc
FLAG 480 96 +Vcc
FLAG 96 160 +Vcc
FLAG -192 528 -Vcc
FLAG 160 160 -Vcc
FLAG 544 96 -Vcc
FLAG 528 496 -Vcc
FLAG 1216 528 V1
FLAG 1216 864 V2
FLAG 512 608 V2
FLAG 1056 784 0
SYMBOL res -208 384 R180
WINDOW 0 36 76 Left 2
WINDOW 3 36 40 Left 1
SYMATTR InstName R1
SYMATTR Value {mc({R1}, tol_R)}
SYMBOL res -208 208 R180
WINDOW 0 36 76 Left 2
WINDOW 3 36 40 Left 1
SYMATTR InstName R2
SYMATTR Value {mc({R2}, tol_R)}
SYMBOL res -48 384 R90
WINDOW 0 -7 62 VBottom 2
WINDOW 3 33 85 VTop 1
SYMATTR InstName R3
SYMATTR Value {mc({R3}, tol_R)}
SYMBOL res 80 384 R90
WINDOW 0 0 56 VBottom 2
WINDOW 3 32 56 VTop 1
SYMATTR InstName R4
SYMATTR Value {mc({R4}, tol_R)}
SYMBOL res 112 576 R180
WINDOW 0 -45 46 Left 2
WINDOW 3 -135 17 Left 1
SYMATTR InstName R5
SYMATTR Value {mc({R5}, tol_P)}
SYMBOL res 128 416 R270
WINDOW 0 32 56 VTop 2
WINDOW 3 -1 53 VBottom 1
SYMATTR InstName R6
SYMATTR Value {mc({R6}, tol_R)}
SYMBOL res 272 416 R270
WINDOW 0 37 63 VTop 2
WINDOW 3 -1 70 VBottom 1
SYMATTR InstName R7
SYMATTR Value {mc({R7}, tol_R)}
SYMBOL res 480 272 R0
WINDOW 3 26 82 Left 1
WINDOW 0 41 50 Left 2
SYMATTR Value {mc({R8}, tol_R)}
SYMATTR InstName R8
SYMBOL res 512 256 R180
WINDOW 0 36 76 Left 2
WINDOW 3 36 40 Left 1
SYMATTR InstName R9
SYMATTR Value {mc({R9}, tol_R)}
SYMBOL voltage 896 480 R0
SYMATTR InstName -Vcc
SYMATTR Value -9
SYMBOL voltage 784 480 R0
SYMATTR InstName +Vcc
SYMATTR Value +9
SYMBOL voltage 1216 560 R0
WINDOW 3 24 44 Left 2
WINDOW 123 48 56 Left 1
WINDOW 39 0 0 Left 0
SYMATTR Value ""
SYMATTR Value2 AC 1.5 0
SYMATTR InstName VDM1
SYMBOL FACUsym\\TL084_2 496 496 R270
SYMATTR InstName OA2
SYMBOL FACUsym\\TL084_2 128 160 R270
SYMATTR InstName OA3
SYMBOL FACUsym\\TL084 -224 528 R270
SYMATTR InstName OA1
SYMBOL FACUsym\\TL084 512 96 R270
SYMATTR InstName OA4
SYMBOL voltage 1216 688 R0
WINDOW 0 24 96 Left 2
WINDOW 3 24 16 Left 2
WINDOW 123 24 -12 Left 2
WINDOW 39 0 0 Left 0
SYMATTR InstName VDM2
SYMATTR Value ""
SYMATTR Value2 AC 1 0
TEXT 816 -8 Left 2 !.param R1=1k R4=1k R6=1k R8=1k
TEXT 816 40 Left 2 !.param R2=20k R9=20k
TEXT 816 88 Left 2 !.param R3=6.2k R7=6.2k
TEXT 816 136 Left 2 !.param R5=50000
TEXT 816 184 Left 2 !.param tol_R=0.01
TEXT 816 232 Left 2 !.param tol_P = 0
TEXT 816 328 Left 2 !.ac dec 300 1000 10MEG
TEXT 816 288 Left 2 !.step param run 1 25 1
