Version 4
SHEET 1 1448 704
WIRE 32 -144 -32 -144
WIRE 176 -144 96 -144
WIRE 528 -144 176 -144
WIRE 528 -128 528 -144
WIRE 528 -128 464 -128
WIRE 528 -112 528 -128
WIRE 176 -96 176 -144
WIRE -192 -80 -192 -96
WIRE -192 -80 -240 -80
WIRE -144 -80 -192 -80
WIRE -240 -32 -240 -80
WIRE -144 -16 -144 -80
WIRE 336 16 272 16
WIRE 528 16 528 -32
WIRE 864 16 528 16
WIRE 176 32 176 -16
WIRE 528 32 528 16
WIRE -240 80 -240 48
WIRE -192 80 -240 80
WIRE -144 80 -144 48
WIRE -144 80 -192 80
WIRE -192 96 -192 80
WIRE 528 144 528 96
WIRE 528 144 464 144
WIRE 704 144 528 144
WIRE 528 176 528 144
WIRE -176 240 -272 240
WIRE -32 240 -32 -144
WIRE -32 240 -96 240
WIRE 272 304 272 16
WIRE 528 304 528 256
WIRE 528 304 272 304
WIRE 608 304 528 304
WIRE 528 336 528 304
WIRE 864 384 864 16
WIRE 864 384 800 384
WIRE 528 464 528 416
WIRE 704 464 528 464
WIRE 528 496 528 464
WIRE -32 624 -32 240
WIRE 528 624 528 576
WIRE 528 624 -32 624
FLAG 176 32 0
FLAG 1248 160 0
FLAG 1392 80 0
FLAG -272 320 0
FLAG 1248 80 v+
FLAG 1392 160 v-
FLAG 800 320 v+
FLAG 336 80 v+
FLAG 800 352 v-
FLAG 336 48 v-
FLAG 608 304 Vout
FLAG -32 240 Vin
FLAG 464 -128 V1+
FLAG 400 64 V1+
FLAG 464 144 V1-
FLAG 400 32 V1-
FLAG 704 464 V2+
FLAG 736 336 V2+
FLAG 704 144 V2-
FLAG 736 368 V2-
FLAG -192 96 0
FLAG -192 -96 pp
FLAG 576 272 pp
SYMBOL cap 96 -160 R90
WINDOW 0 0 32 VBottom 2
WINDOW 3 32 32 VTop 2
SYMATTR InstName C1
SYMATTR Value {mc(C,tolc)}
SYMBOL cap 512 32 R0
SYMATTR InstName C2
SYMATTR Value {mc(C,tolc)}
SYMBOL res 160 -112 R0
SYMATTR InstName R1
SYMATTR Value {mc(4*R,tolr)}
SYMBOL res 512 -128 R0
SYMATTR InstName R2
SYMATTR Value {mc(R,tolr)}
SYMBOL res 512 160 R0
SYMATTR InstName R3
SYMATTR Value {mc(R,tolr)}
SYMBOL res 512 320 R0
SYMATTR InstName R4
SYMATTR Value {mc(R,tolr)}
SYMBOL res 512 480 R0
SYMATTR InstName R5
SYMATTR Value {mc(R,tolr)}
SYMBOL voltage 1248 64 R0
WINDOW 123 0 0 Left 0
WINDOW 39 0 0 Left 0
SYMATTR InstName V1
SYMATTR Value 9
SYMBOL voltage 1392 64 R0
WINDOW 123 0 0 Left 0
WINDOW 39 0 0 Left 0
SYMATTR InstName V2
SYMATTR Value 9
SYMBOL voltage -272 224 R0
WINDOW 3 24 152 Left 2
WINDOW 123 24 124 Left 2
WINDOW 39 0 0 Left 0
SYMATTR Value SINE()
SYMATTR Value2 AC 1
SYMATTR InstName V3
SYMBOL AutoGenerated\\LM833 960 -160 R180
SYMATTR InstName U1
SYMBOL AutoGenerated\\LM833 1248 -160 R0
SYMATTR InstName U2
SYMBOL AutoGenerated\\TL082 368 48 R180
SYMATTR InstName U3
SYMBOL AutoGenerated\\TL082 768 352 R0
SYMATTR InstName U4
SYMBOL res -80 224 R90
WINDOW 0 0 56 VBottom 2
WINDOW 3 32 56 VTop 2
SYMATTR InstName R6
SYMATTR Value 0
SYMBOL res -256 -48 R0
SYMATTR InstName R7
SYMATTR Value 1Meg
SYMBOL cap -160 -16 R0
SYMATTR InstName C3
SYMATTR Value 100p
SYMBOL res 1104 160 R90
WINDOW 0 0 56 VBottom 2
WINDOW 3 32 56 VTop 2
SYMATTR InstName R8
SYMATTR Value 0
TEXT -16 688 Left 2 !.ac dec 1000 1 10meg
TEXT 936 296 Left 2 !.param R = 2.2k
TEXT 968 432 Left 2 !.param tolr = 0.05
TEXT 936 336 Left 2 !.param C = 34.965n
TEXT 968 456 Left 2 !.param tolc = 0.2
TEXT 976 504 Left 2 ;.step param run 0 100 1
